CHEMBL3126004
     RDKit          2D

 40 43  0  0  0  0  0  0  0  0999 V2000
   -1.6413    4.2966    0.0000 C   0  0  0  0  0  0  0  0  0  0  0  0
   -0.9493    3.8472    0.0000 C   0  0  0  0  0  0  0  0  0  0  0  0
   -0.2143    4.2218    0.0000 C   0  0  0  0  0  0  0  0  0  0  0  0
   -0.1711    5.0457    0.0000 C   0  0  0  0  0  0  0  0  0  0  0  0
   -0.8630    5.4950    0.0000 C   0  0  0  0  0  0  0  0  0  0  0  0
   -1.5981    5.1204    0.0000 C   0  0  0  0  0  0  0  0  0  0  0  0
   -2.3763    3.9220    0.0000 C   0  0  0  0  0  0  0  0  0  0  0  0
   -2.4195    3.0981    0.0000 O   0  0  0  0  0  0  0  0  0  0  0  0
   -3.1546    2.7236    0.0000 C   0  0  0  0  0  0  0  0  0  0  0  0
   -3.1977    1.8997    0.0000 C   0  0  0  0  0  0  0  0  0  0  0  0
   -2.5058    1.4504    0.0000 C   0  0  0  0  0  0  0  0  0  0  0  0
   -3.9328    1.5252    0.0000 N   0  0  0  0  0  0  0  0  0  0  0  0
   -3.8465    3.1729    0.0000 O   0  0  0  0  0  0  0  0  0  0  0  0
   -3.9760    0.7013    0.0000 P   0  0  0  0  0  0  0  0  0  0  0  0
   -3.1521    0.6581    0.0000 O   0  0  0  0  0  0  0  0  0  0  0  0
   -4.7999    0.7445    0.0000 O   0  0  0  0  0  0  0  0  0  0  0  0
   -4.0192   -0.1226    0.0000 O   0  0  0  0  0  0  0  0  0  0  0  0
   -4.7542   -0.4971    0.0000 C   0  0  0  0  0  0  0  0  0  0  0  0
   -4.7974   -1.3210    0.0000 C   0  0  0  0  0  0  0  0  0  0  0  0
   -5.1744    1.4795    0.0000 C   0  0  0  0  0  0  0  0  0  0  0  0
   -6.3728    2.2578    0.0000 C   0  0  0  0  0  0  0  0  0  0  0  0
   -5.9235    2.9497    0.0000 C   0  0  0  0  0  0  0  0  0  0  0  0
   -5.0996    2.9065    0.0000 C   0  0  0  0  0  0  0  0  0  0  0  0
   -4.7251    2.1714    0.0000 C   0  0  0  0  0  0  0  0  0  0  0  0
   -5.9983    1.5227    0.0000 C   0  0  0  0  0  0  0  0  0  0  0  0
   -5.4893   -1.7703    0.0000 O   0  0  0  0  0  0  0  0  0  0  0  0
   -4.1562   -1.8402    0.0000 C   0  0  0  0  0  0  0  0  0  0  0  0
   -4.4519   -2.6104    0.0000 C   0  0  0  0  0  0  0  0  0  0  0  0
   -5.2758   -2.5672    0.0000 C   0  0  0  0  0  0  0  0  0  0  0  0
   -3.3594   -1.6266    0.0000 O   0  0  0  0  0  0  0  0  0  0  0  0
   -3.7208   -2.9926    0.0000 F   0  0  0  0  0  0  0  0  0  0  0  0
   -4.4001   -3.4338    0.0000 F   0  0  0  0  0  0  0  0  0  0  0  0
   -5.7949   -3.2084    0.0000 N   0  0  0  0  0  0  0  0  0  0  0  0
   -7.1290   -3.7205    0.0000 N   0  0  0  0  0  0  0  0  0  0  0  0
   -6.6098   -3.0793    0.0000 C   0  0  0  0  0  0  0  0  0  0  0  0
   -5.4993   -3.9786    0.0000 C   0  0  0  0  0  0  0  0  0  0  0  0
   -6.0185   -4.6197    0.0000 C   0  0  0  0  0  0  0  0  0  0  0  0
   -6.8333   -4.4907    0.0000 C   0  0  0  0  0  0  0  0  0  0  0  0
   -6.9054   -2.3091    0.0000 O   0  0  0  0  0  0  0  0  0  0  0  0
   -7.3525   -5.1318    0.0000 N   0  0  0  0  0  0  0  0  0  0  0  0
  1  2  2  0
  2  3  1  0
  3  4  2  0
  4  5  1  0
  5  6  2  0
  1  6  1  0
  7  8  1  0
  1  7  1  0
  9 10  1  0
 10 11  1  6
  8  9  1  0
 12 10  1  0
  9 13  2  0
 14 12  1  0
 14 15  2  0
 14 16  1  0
 14 17  1  0
 17 18  1  0
 19 18  1  6
 16 20  1  0
 21 22  1  0
 22 23  2  0
 23 24  1  0
 21 25  2  0
 24 20  2  0
 20 25  1  0
 27 28  1  0
 28 29  1  0
 26 29  1  0
 26 19  1  0
 19 27  1  0
 27 30  1  1
 28 31  1  0
 28 32  1  0
 29 33  1  6
 34 35  1  0
 36 37  2  0
 37 38  1  0
 34 38  2  0
 35 33  1  0
 33 36  1  0
 35 39  2  0
 38 40  1  0
M  END
> <chembl_id>
CHEMBL3126004

> <chembl_pref_name>
FOSGEMCITABINE PALABENAMIDE

$$$$
